@<TRIPOS>MOLECULE
1cip_ligand
   45    47     0     0     0
SMALL
USER_CHARGES

@<TRIPOS>ATOM
      1 P1         36.8810  -32.3900   12.4390 P.3       1 <0>         1.4380
      2 O1         38.1440  -32.8270   13.1120 O.3       1 <0>        -1.0333
      3 O2         36.0140  -31.4800   13.1990 O.2       1 <0>        -1.0333
      4 O3         36.1900  -33.5620   11.8810 O.3       1 <0>        -1.0333
      5 N1         37.4320  -31.4970   11.1070 N.pl3     1 <0>        -1.0960
      6 H1         38.4170  -31.4550   10.9420 H         1 <0>         0.4200
      7 P2         36.4150  -30.6790   10.0490 P.3       1 <0>         1.5092
      8 O4         35.3920  -29.8840   10.7390 O.2       1 <0>        -0.9500
      9 O5         35.9190  -31.6360    9.0170 O.3       1 <0>        -0.9500
     10 O6         37.4040  -29.5910    9.3150 O.3       1 <0>        -0.5424
     11 P3         37.3620  -28.0230    9.4560 P.3       1 <0>         1.4424
     12 O7         36.1100  -27.4400    8.9520 O.2       1 <0>        -0.9500
     13 O8         37.8300  -27.6780   10.8370 O.3       1 <0>        -0.9500
     14 O9         38.5380  -27.6370    8.4850 O.3       1 <0>        -0.5512
     15 C1         39.9390  -27.9170    8.7860 C.3       1 <0>         0.2800
     16 H2         40.1700  -28.8010    8.3800 H         1 <0>         0.0000
     17 H3         40.0350  -27.9710    9.7800 H         1 <0>         0.0000
     18 C2         40.8620  -26.8290    8.2300 C.3       1 <0>         0.2800
     19 H4         41.7970  -27.0290    8.5240 H         1 <0>         0.0000
     20 O10        40.7610  -26.8390    6.7420 O.3       1 <0>        -0.5600
     21 C3         40.4620  -25.4260    8.7140 C.3       1 <0>         0.2800
     22 H5         39.9860  -25.3890    9.5930 H         1 <0>         0.0000
     23 O11        41.6890  -24.6890    8.9130 O.3       1 <0>        -0.6800
     24 H6         41.4690  -23.7680    9.0710 H         1 <0>         0.4000
     25 C4         39.6490  -24.8240    7.4950 C.3       1 <0>         0.2800
     26 H7         38.6520  -24.8960    7.5200 H         1 <0>         0.0000
     27 O12        39.8130  -23.4070    7.4010 O.3       1 <0>        -0.6800
     28 H8         39.0120  -22.9860    7.7210 H         1 <0>         0.4000
     29 C5         40.4040  -25.5140    6.3260 C.3       1 <0>         0.5356
     30 H9         41.2300  -25.0210    6.0540 H         1 <0>         0.0000
     31 N2         39.5180  -25.6450    5.1630 N.pl3     1 <0>         0.0476
     32 C6         38.2730  -26.2320    5.0450 C.2       1 <0>         0.0365
     33 H10        37.7690  -26.5570    5.8450 H         1 <0>         0.1500
     34 N3         37.7840  -26.3430    3.8340 N.2       1 <0>        -0.5653
     35 C7         38.7790  -25.6980    3.0740 C.2       1 <0>         0.1412
     36 C8         38.8660  -25.5160    1.6250 C.2       1 <0>         0.7160
     37 O13        38.0330  -25.8660    0.7850 O.2       1 <0>        -0.5700
     38 N4         40.0600  -24.8730    1.2620 N.am      1 <0>        -0.4900
     39 H11        40.1920  -24.6950    0.2870 H         1 <0>         0.3700
     40 C9         41.0780  -24.4580    2.1100 C.2       1 <0>         0.5600
     41 N5         42.1510  -23.8680    1.5980 N.pl3     1 <0>        -0.8500
     42 H12        42.1920  -23.6670    0.6190 H         1 <0>         0.4000
     43 H13        42.9190  -23.6250    2.1910 H         1 <0>         0.4000
     44 N6         41.0480  -24.7200    3.4410 N.2       1 <0>        -0.5760
     45 C10        39.8730  -25.3200    3.8520 C.2       1 <0>        -0.0256
@<TRIPOS>BOND
     1    1    2 1
     2    1    3 2
     3    1    4 1
     4    1    5 1
     5    5    6 1
     6    5    7 1
     7    7    8 2
     8    7    9 1
     9    7   10 1
    10   10   11 1
    11   11   12 2
    12   11   13 1
    13   11   14 1
    14   14   15 1
    15   15   16 1
    16   15   17 1
    17   15   18 1
    18   18   19 1
    19   18   20 1
    20   18   21 1
    21   20   29 1
    22   21   22 1
    23   21   23 1
    24   21   25 1
    25   23   24 1
    26   25   26 1
    27   25   27 1
    28   25   29 1
    29   27   28 1
    30   29   30 1
    31   29   31 1
    32   31   32 1
    33   31   45 1
    34   32   33 1
    35   32   34 2
    36   34   35 1
    37   35   36 1
    38   35   45 2
    39   36   37 2
    40   36   38 am
    41   38   39 1
    42   38   40 1
    43   40   41 1
    44   40   44 2
    45   41   42 1
    46   41   43 1
    47   44   45 1
